Circuit: * Z:\home\ahmed\wine\ltspice\LM741.asc

Warning: Multiple definitions of model "2scr375p" Type: BJT
Warning: Multiple definitions of model "bc857b" Type: BJT
Warning: Multiple definitions of model "bc847c" Type: BJT
Warning: Multiple definitions of model "bc847b" Type: BJT
Direct Newton iteration failed to find .op point.  (Use ".option noopiter" to skip.)
Starting Gmin stepping
Gmin = 10
Gmin = 1.07374
Gmin = 0.115292
Gmin = 0.0123794
Gmin = 0.00132923
Gmin = 0.000142725
Gmin = 1.5325e-005
Gmin = 1.6455e-006
vernier = 0.5
Gmin = 3.06744e-007
vernier = 0.25
vernier = 0.125
vernier = 0.0625
vernier = 0.03125
Gmin = 3.26908e-007
vernier = 0.0416667
vernier = 0.0555555
Gmin = 2.94227e-007
vernier = 0.074074
Gmin = 2.49406e-007
vernier = 0.0987653
vernier = 0.131687
Gmin = 1.89269e-007
vernier = 0.175583
vernier = 0.23411
Gmin = 1.22348e-007
vernier = 0.312147
Gmin = 6.20851e-008
vernier = 0.416196
vernier = 0.554928
Gmin = 2.03879e-008
vernier = 0.739903
vernier = 0.986537
Gmin = 3.65421e-009
vernier = 1
Gmin = 3.96622e-010
Gmin = 4.2587e-011
Gmin = 4.57275e-012
Gmin = 4.90995e-013
Gmin = 0
Gmin stepping succeeded in finding the operating point.


Date: Sun Jul 30 12:27:45 2023
Total elapsed time: 0.088 seconds.

tnom = 27
temp = 27
method = modified trap
totiter = 4013
traniter = 2618
tranpoints = 1118
accept = 1078
rejected = 40
matrix size = 48
fillins = 43
solver = Normal
Thread vector: 2.4/2.1[2] 2.0/1.4[2] 0.9/0.7[2] 0.2/0.7[1]  2592/500
Matrix Compiler1: 7.39 KB object code size  1.0/0.6/[0.3]
Matrix Compiler2: 6.11 KB object code size  0.6/0.6/[0.4]

