Circuit: * Z:\home\ahmed\wine\ltspice\low-pass-filter.asc


Date: Sun Jul 30 17:25:10 2023
Total elapsed time: 0.011 seconds.

tnom = 27
temp = 27
method = trap
totiter = 0
traniter = 0
tranpoints = 0
accept = 0
rejected = 0
matrix size = 3
fillins = 0
solver = Normal

