Circuit: * Z:\home\ahmed\wine\ltspice\noise.asc

Warning: Multiple definitions of model "2scr375p" Type: BJT
Warning: Multiple definitions of model "bc857b" Type: BJT
Warning: Multiple definitions of model "bc847c" Type: BJT
Warning: Multiple definitions of model "bc847b" Type: BJT
Direct Newton iteration for .op point succeeded.

total_output_refered_rms_noise: INTEG(v(onoise))=2.0238e-005 FROM 1 TO 10000
total_input_refered_rms_noise: INTEG(v(inoise))=1.95649e-006 FROM 1 TO 10000


Date: Tue Aug 01 21:02:15 2023
Total elapsed time: 0.023 seconds.

tnom = 27
temp = 27
method = trap
totiter = 8
traniter = 0
tranpoints = 0
accept = 0
rejected = 0
matrix size = 41
fillins = 36
solver = Normal
Matrix Compiler1:     301 opcodes
Matrix Compiler2: 4.49 KB object code size
